Circuit: * Z:\home\aniket\LTspice\my_files\Draft7.asc

WARNING: Less than two connections to node N067.  This node is used by E16.
Direct Newton iteration for .op point succeeded.

Date: Wed Apr 03 16:43:17 2024
Total elapsed time: 0.198 seconds.

tnom = 27
temp = 27
method = modified trap
totiter = 30963
traniter = 30960
tranpoints = 14047
accept = 11231
rejected = 2816
matrix size = 61
fillins = 0
solver = Normal
Matrix Compiler1: 1.42 KB object code size  0.3/0.2/[0.2]
Matrix Compiler2: 3.08 KB object code size  0.2/0.4/[0.2]

