Circuit: * Z:\home\aniket\LTspice\my_files\Draft6.asc

WARNING: Less than two connections to node OUT0.  This node is used by A3.
WARNING: Less than two connections to node OUT1.  This node is used by A4.
Direct Newton iteration for .op point succeeded.

Date: Mon Mar 18 16:07:03 2024
Total elapsed time: 0.033 seconds.

tnom = 27
temp = 27
method = modified trap
totiter = 2729
traniter = 2726
tranpoints = 1308
accept = 1245
rejected = 63
matrix size = 17
fillins = 0
solver = Normal
Matrix Compiler1: 372 bytes object code size  0.1/0.1/[0.1]
Matrix Compiler2: 791 bytes object code size  0.1/0.1/[0.1]

