Circuit: * Z:\home\aniket\LTspice\my_files\Draft5.asc

Model "cmosn": Oxide thickness thinner than recommended for a level 3 MOSFET.
Instance "m1": Length shorter than recommended for a level 3 MOSFET.
.step x=0
.OP point found by inspection.
.step x=0.3
.step x=0.6
.step x=0.9
.step x=1.2
.step x=1.5
.step x=1.8
.step x=2.1
.step x=2.4
.step x=2.7
.step x=3
.step x=3.3

Date: Mon Mar 18 08:57:17 2024
Total elapsed time: 0.251 seconds.

tnom = 27
temp = 27
method = trap
totiter = 38
traniter = 0
tranpoints = 0
accept = 0
rejected = 0
matrix size = 6
fillins = 0
solver = Normal
Matrix Compiler1:      15 opcodes
Matrix Compiler2: 464 bytes object code size
