Circuit: * Z:\home\aniket\LTspice\my_files\Draft3.asc

WARNING: Node N007 is floating.
WARNING: Node N003 is floating.
WARNING: Node X1:N002 is floating.

Instance "m2": Length shorter than recommended for a level 1 MOSFET.
Instance "m:x1:1": Length shorter than recommended for a level 1 MOSFET.
Instance "m1": Length shorter than recommended for a level 1 MOSFET.
Direct Newton iteration for .op point succeeded.

Date: Sun Mar 17 18:28:20 2024
Total elapsed time: 0.066 seconds.

tnom = 27
temp = 27
method = modified trap
totiter = 4111
traniter = 4083
tranpoints = 1745
accept = 1589
rejected = 156
matrix size = 13
fillins = 0
solver = Normal
Matrix Compiler1: 622 bytes object code size  0.1/0.1/[0.1]
Matrix Compiler2: off  [0.1]/0.2/0.2

