Circuit: * Z:\home\aniket\LTspice\my_files\Draft1.asc

WARNING: Node N006 is floating.

Direct Newton iteration for .op point succeeded.

Date: Fri Mar 15 20:16:44 2024
Total elapsed time: 0.049 seconds.

tnom = 27
temp = 27
method = modified trap
totiter = 3119
traniter = 3096
tranpoints = 1435
accept = 1349
rejected = 86
matrix size = 9
fillins = 0
solver = Normal
Matrix Compiler1: 440 bytes object code size  0.1/0.1/[0.1]
Matrix Compiler2: off  [0.1]/0.1/0.1

