Circuit: * Z:\home\aniket\LTspice\my_files\Draft9.asc

WARNING: Less than two connections to node OUT7.  This node is used by A3.
WARNING: Less than two connections to node OUT6.  This node is used by A4.
WARNING: Less than two connections to node OUT5.  This node is used by A8.
WARNING: Less than two connections to node OUT4.  This node is used by A10.
WARNING: Less than two connections to node OUT3.  This node is used by A12.
WARNING: Less than two connections to node OUT2.  This node is used by A13.
WARNING: Less than two connections to node OUT1.  This node is used by A16.
WARNING: Less than two connections to node OUT0.  This node is used by A18.
Direct Newton iteration for .op point succeeded.

Date: Mon Apr 08 22:13:00 2024
Total elapsed time: 0.044 seconds.

tnom = 27
temp = 27
method = modified trap
totiter = 5297
traniter = 5294
tranpoints = 2492
accept = 2148
rejected = 344
matrix size = 35
fillins = 0
solver = Normal
Matrix Compiler1: 786 bytes object code size  0.2/0.1/[0.1]
Matrix Compiler2: 1.67 KB object code size  0.1/0.2/[0.1]

