Circuit: * Z:\home\aniket\LTspice\my_files\Draft2.asc

WARNING: Node X1:N003 is floating.
WARNING: Node X1:N004 is floating.
WARNING: Node X1:X1:N002 is floating.
WARNING: Node X1:X2:N002 is floating.

Instance "m:x1:x2:1": Length shorter than recommended for a level 1 MOSFET.
Instance "m:x1:x1:1": Length shorter than recommended for a level 1 MOSFET.
Instance "m:x1:2": Length shorter than recommended for a level 1 MOSFET.
Instance "m:x1:1": Length shorter than recommended for a level 1 MOSFET.
Direct Newton iteration for .op point succeeded.

Date: Sun Mar 17 18:42:56 2024
Total elapsed time: 0.077 seconds.

tnom = 27
temp = 27
method = modified trap
totiter = 7056
traniter = 7024
tranpoints = 2803
accept = 2448
rejected = 355
matrix size = 18
fillins = 0
solver = Normal
Matrix Compiler1: 970 bytes object code size  0.2/0.1/[0.1]
Matrix Compiler2: off  [0.1]/0.2/0.2

