Circuit: * Z:\home\aniket\LTspice\my_files\Draft8.asc

Model "x4:cmosp": Oxide thickness thinner than recommended for a level 3 MOSFET.
Model "x4:cmosn": Oxide thickness thinner than recommended for a level 3 MOSFET.
Model "x3:cmosn": Oxide thickness thinner than recommended for a level 3 MOSFET.
Model "x3:cmosp": Oxide thickness thinner than recommended for a level 3 MOSFET.
WARNING: Node N012 is floating.
WARNING: Node X2:N001 is floating.
WARNING: Node X2:X9:N003 is floating.
WARNING: Node X2:X9:N004 is floating.
WARNING: Node X2:X9:X1:N002 is floating.
WARNING: Node X2:X9:X2:N002 is floating.
WARNING: Node X2:X2:N003 is floating.
WARNING: Node X2:X2:N004 is floating.
WARNING: Node X2:X2:X1:N002 is floating.
WARNING: Node X2:X2:X2:N002 is floating.
WARNING: Node X2:X3:N003 is floating.
WARNING: Node X2:X3:N004 is floating.
WARNING: Node X2:X3:X1:N002 is floating.
WARNING: Node X2:X3:X2:N002 is floating.
WARNING: Node X2:X4:N003 is floating.
WARNING: Node X2:X4:N004 is floating.
WARNING: Node X2:X4:X1:N002 is floating.
WARNING: Node X2:X4:X2:N002 is floating.
WARNING: Node X2:X5:N003 is floating.
WARNING: Node X2:X5:N004 is floating.
WARNING: Node X2:X5:X1:N002 is floating.
WARNING: Node X2:X5:X2:N002 is floating.
WARNING: Node X2:X6:N003 is floating.
WARNING: Node X2:X6:N004 is floating.
WARNING: Node X2:X6:X1:N002 is floating.
WARNING: Node X2:X6:X2:N002 is floating.
WARNING: Node X2:X7:N003 is floating.
WARNING: Node X2:X7:N004 is floating.
WARNING: Node X2:X7:X1:N002 is floating.
WARNING: Node X2:X7:X2:N002 is floating.
WARNING: Node X2:X8:N003 is floating.
WARNING: Node X2:X8:N004 is floating.
WARNING: Node X2:X8:X1:N002 is floating.
WARNING: Node X2:X8:X2:N002 is floating.

Instance "m:x2:x8:x2:1": Length shorter than recommended for a level 1 MOSFET.
Instance "m:x2:x8:x1:1": Length shorter than recommended for a level 1 MOSFET.
Instance "m:x2:x8:2": Length shorter than recommended for a level 1 MOSFET.
Instance "m:x2:x7:x2:1": Length shorter than recommended for a level 1 MOSFET.
Instance "m:x2:x7:x1:1": Length shorter than recommended for a level 1 MOSFET.
Instance "m:x2:x7:2": Length shorter than recommended for a level 1 MOSFET.
Instance "m:x2:x6:x2:1": Length shorter than recommended for a level 1 MOSFET.
Instance "m:x2:x6:x1:1": Length shorter than recommended for a level 1 MOSFET.
Instance "m:x2:x6:2": Length shorter than recommended for a level 1 MOSFET.
Instance "m:x2:x5:x2:1": Length shorter than recommended for a level 1 MOSFET.
Instance "m:x2:x5:x1:1": Length shorter than recommended for a level 1 MOSFET.
Instance "m:x2:x5:2": Length shorter than recommended for a level 1 MOSFET.
Instance "m:x2:x4:x2:1": Length shorter than recommended for a level 1 MOSFET.
Instance "m:x2:x4:x1:1": Length shorter than recommended for a level 1 MOSFET.
Instance "m:x2:x4:2": Length shorter than recommended for a level 1 MOSFET.
Instance "m:x2:x3:x2:1": Length shorter than recommended for a level 1 MOSFET.
Instance "m:x2:x3:x1:1": Length shorter than recommended for a level 1 MOSFET.
Instance "m:x2:x3:2": Length shorter than recommended for a level 1 MOSFET.
Instance "m:x2:x2:x2:1": Length shorter than recommended for a level 1 MOSFET.
Instance "m:x2:x2:x1:1": Length shorter than recommended for a level 1 MOSFET.
Instance "m:x2:x2:2": Length shorter than recommended for a level 1 MOSFET.
Instance "m:x2:x9:x2:1": Length shorter than recommended for a level 1 MOSFET.
Instance "m:x2:x9:x1:1": Length shorter than recommended for a level 1 MOSFET.
Instance "m:x2:x9:2": Length shorter than recommended for a level 1 MOSFET.
Instance "m:x2:x8:1": Length shorter than recommended for a level 1 MOSFET.
Instance "m:x2:x7:1": Length shorter than recommended for a level 1 MOSFET.
Instance "m:x2:x6:1": Length shorter than recommended for a level 1 MOSFET.
Instance "m:x2:x5:1": Length shorter than recommended for a level 1 MOSFET.
Instance "m:x2:x4:1": Length shorter than recommended for a level 1 MOSFET.
Instance "m:x2:x3:1": Length shorter than recommended for a level 1 MOSFET.
Instance "m:x2:x2:1": Length shorter than recommended for a level 1 MOSFET.
Instance "m:x2:x9:1": Length shorter than recommended for a level 1 MOSFET.
Instance "m:x4:3": Length shorter than recommended for a level 3 MOSFET.
Instance "m:x4:2": Length shorter than recommended for a level 3 MOSFET.
Instance "m:x4:4": Length shorter than recommended for a level 3 MOSFET.
Instance "m:x4:1": Length shorter than recommended for a level 3 MOSFET.
Instance "m:x3:9": Width narrower than recommended for a level 3 MOSFET.
Instance "m:x3:10": Width narrower than recommended for a level 3 MOSFET.
Instance "m:x3:2": Length shorter than recommended for a level 3 MOSFET.
Instance "m:x3:1": Length shorter than recommended for a level 3 MOSFET.
Instance "m:x3:4": Length shorter than recommended for a level 3 MOSFET.
Instance "m:x3:4": Width narrower than recommended for a level 3 MOSFET.
Instance "m:x3:3": Length shorter than recommended for a level 3 MOSFET.
Instance "m:x3:3": Width narrower than recommended for a level 3 MOSFET.
Direct Newton iteration for .op point succeeded.
Ignoring empty pin current: Ix(x1:clk)
Ignoring empty pin current: Ix(x1:vin)
Ignoring empty pin current: Ix(x1:clk)
Ignoring empty pin current: Ix(x1:vin)
Heightened Def Con from 6.25152e-008 to 6.25152e-008
Heightened Def Con from 6.25152e-008 ++++++++++++++++++++++++++to 6.25152e-008
Heightened Def Con from 6.25152e-008 +++++++++++++++++to 6.25153e-008
Heightened Def Con from 6.25153e-008 +++++++to 6.25168e-008
Heightened Def Con from 1.87515e-007 to 1.87515e-007
Heightened Def Con from 1.87515e-007 to 1.87515e-007
Heightened Def Con from 1.87515e-007 to 1.87515e-007
Heightened Def Con from 1.87515e-007 to 1.87515e-007
Heightened Def Con from 1.87515e-007 ++++++++++++++++++++++++++to 1.87515e-007
Heightened Def Con from 1.87515e-007 +++++++++++++++++to 1.87515e-007
Heightened Def Con from 1.87515e-007 +++++++to 1.87611e-007
Heightened Def Con from 3.12515e-007 to 3.12515e-007
Heightened Def Con from 3.12515e-007 to 3.12515e-007
Heightened Def Con from 3.12515e-007 to 3.12515e-007
Heightened Def Con from 3.12515e-007 to 3.12515e-007
Heightened Def Con from 3.12515e-007 to 3.12515e-007
Heightened Def Con from 3.12515e-007 to 3.12515e-007
Heightened Def Con from 3.12515e-007 +to 3.12515e-007
Heightened Def Con from 3.12515e-007 +++++++++++++++++++++++++++to 3.12531e-007
Heightened Def Con from 3.12531e-007 ++++++++++++++++++to 3.12671e-007
Heightened Def Con from 3.12671e-007 ++++++++to 3.12812e-007
Heightened Def Con from 4.37515e-007 to 4.37515e-007
Heightened Def Con from 4.37515e-007 to 4.37515e-007
Heightened Def Con from 4.37515e-007 to 4.37515e-007
Heightened Def Con from 4.37515e-007 to 4.37515e-007
Heightened Def Con from 4.37515e-007 to 4.37515e-007
Heightened Def Con from 4.37515e-007 to 4.37515e-007
Heightened Def Con from 4.37515e-007 to 4.37515e-007
Heightened Def Con from 4.37515e-007 +to 4.37515e-007
Heightened Def Con from 4.37515e-007 +to 4.37515e-007
Heightened Def Con from 4.37515e-007 to 4.37515e-007
Heightened Def Con from 4.37515e-007 ++++++++++++++++++++++++++to 4.37517e-007
Heightened Def Con from 4.37517e-007 +++++++++++++++++to 4.37535e-007
Heightened Def Con from 4.37535e-007 +++++++to 4.37676e-007
Heightened Def Con from 5.62515e-007 to 5.62515e-007
Heightened Def Con from 5.62515e-007 +to 5.62515e-007
Heightened Def Con from 5.62515e-007 +++++++++++++++++++++++++++to 5.62531e-007
Heightened Def Con from 5.62531e-007 ++++++++++++++++++to 5.62548e-007
Heightened Def Con from 5.62548e-007 ++++++++to 5.62566e-007
Heightened Def Con from 6.87515e-007 to 6.87515e-007
Heightened Def Con from 6.87515e-007 to 6.87515e-007
Heightened Def Con from 6.87515e-007 to 6.87515e-007
Heightened Def Con from 6.87515e-007 +++++++++++++++++++++++++++to 6.87531e-007
Heightened Def Con from 6.87531e-007 ++++++++++++++++++to 6.87671e-007
Heightened Def Con from 6.87671e-007 ++++++++to 6.87812e-007
Heightened Def Con from 8.12515e-007 to 8.12515e-007
Heightened Def Con from 8.12515e-007 to 8.12515e-007
Heightened Def Con from 8.12515e-007 +to 8.12515e-007
Heightened Def Con from 8.12515e-007 to 8.12515e-007
Heightened Def Con from 8.12515e-007 to 8.12515e-007
Heightened Def Con from 8.12515e-007 to 8.12515e-007
Heightened Def Con from 8.12515e-007 to 8.12515e-007
Heightened Def Con from 8.12515e-007 ++++++++++++++++++++++++++to 8.12517e-007
Heightened Def Con from 8.12517e-007 +++++++++++++++++to 8.12658e-007
Heightened Def Con from 8.12658e-007 +++++++to 8.12799e-007
Heightened Def Con from 9.37515e-007 to 9.37515e-007
Heightened Def Con from 9.37515e-007 to 9.37515e-007
Heightened Def Con from 9.37515e-007 to 9.37515e-007
Heightened Def Con from 9.37515e-007 to 9.37515e-007
Heightened Def Con from 9.37515e-007 +to 9.37515e-007
Heightened Def Con from 9.37515e-007 ++++++++++++++++++++++++++to 9.37517e-007
Heightened Def Con from 9.37517e-007 +++++++++++++++++to 9.37535e-007
Heightened Def Con from 9.37535e-007 +++++++to 9.37676e-007
Heightened Def Con from 1.06252e-006 to 1.06252e-006
Heightened Def Con from 1.06252e-006 to 1.06252e-006
Heightened Def Con from 1.06252e-006 to 1.06252e-006
Heightened Def Con from 1.06252e-006 +to 1.06252e-006
Heightened Def Con from 1.06252e-006 +++++++++++++++++++++to 1.06252e-006
Heightened Def Con from 1.06252e-006 ++++++++++++++to 1.06252e-006
Heightened Def Con from 1.06252e-006 to 1.06252e-006
Heightened Def Con from 1.06252e-006 to 1.06252e-006
Heightened Def Con from 1.06252e-006 +++++++++++++++++++++to 1.06252e-006
Heightened Def Con from 1.06252e-006 +++++++++++++to 1.06252e-006
Heightened Def Con from 1.06252e-006 +++++++++++++++++++++to 1.06252e-006
Heightened Def Con from 1.06252e-006 +++++++++++++to 1.06252e-006
Heightened Def Con from 1.06252e-006 to 1.06252e-006
Heightened Def Con from 1.06252e-006 to 1.06252e-006
Heightened Def Con from 1.06252e-006 +to 1.06252e-006
Heightened Def Con from 1.06252e-006 +++++++++++++++++++++++++++to 1.06264e-006
Heightened Def Con from 1.06264e-006 ++++++++++++++++++to 1.06377e-006
Heightened Def Con from 1.06377e-006 ++++++++to 1.06391e-006

Date: Sun Mar 24 22:34:23 2024
Total elapsed time: 1.319 seconds.

tnom = 27
temp = 27
method = modified trap
totiter = 92342
traniter = 92304
tranpoints = 10832
accept = 3593
rejected = 7893
matrix size = 167
fillins = 6
solver = Normal
Thread vector: 8.6/6.9[4] 5.8/2.3[4] 1.5/1.1[4] 0.5/1.2[1]  2592/500
Matrix Compiler1: 8.55 KB object code size  1.7/0.8/[0.4]
Matrix Compiler2: 14.87 KB object code size  1.0/1.5/[0.5]

