Circuit: * Z:\home\aniket\LTspice\my_files\dac_ckt.asc

WARNING: Node N001 is floating.
WARNING: Node OUT is floating.
WARNING: Node IN7 is floating.
WARNING: Node X9:N003 is floating.
WARNING: Node X9:N004 is floating.
WARNING: Node X9:X1:N002 is floating.
WARNING: Node X9:X2:N002 is floating.
WARNING: Node IN0 is floating.
WARNING: Node X2:N003 is floating.
WARNING: Node X2:N004 is floating.
WARNING: Node X2:X1:N002 is floating.
WARNING: Node X2:X2:N002 is floating.
WARNING: Node IN1 is floating.
WARNING: Node X3:N003 is floating.
WARNING: Node X3:N004 is floating.
WARNING: Node X3:X1:N002 is floating.
WARNING: Node X3:X2:N002 is floating.
WARNING: Node IN2 is floating.
WARNING: Node X4:N003 is floating.
WARNING: Node X4:N004 is floating.
WARNING: Node X4:X1:N002 is floating.
WARNING: Node X4:X2:N002 is floating.
WARNING: Node IN3 is floating.
WARNING: Node X5:N003 is floating.
WARNING: Node X5:N004 is floating.
WARNING: Node X5:X1:N002 is floating.
WARNING: Node X5:X2:N002 is floating.
WARNING: Node IN4 is floating.
WARNING: Node X6:N003 is floating.
WARNING: Node X6:N004 is floating.
WARNING: Node X6:X1:N002 is floating.
WARNING: Node X6:X2:N002 is floating.
WARNING: Node IN5 is floating.
WARNING: Node X7:N003 is floating.
WARNING: Node X7:N004 is floating.
WARNING: Node X7:X1:N002 is floating.
WARNING: Node X7:X2:N002 is floating.
WARNING: Node IN6 is floating.
WARNING: Node X8:N003 is floating.
WARNING: Node X8:N004 is floating.
WARNING: Node X8:X1:N002 is floating.
WARNING: Node X8:X2:N002 is floating.

Instance "m:x8:x2:1": Length shorter than recommended for a level 1 MOSFET.
Instance "m:x8:x1:1": Length shorter than recommended for a level 1 MOSFET.
Instance "m:x8:2": Length shorter than recommended for a level 1 MOSFET.
Instance "m:x7:x2:1": Length shorter than recommended for a level 1 MOSFET.
Instance "m:x7:x1:1": Length shorter than recommended for a level 1 MOSFET.
Instance "m:x7:2": Length shorter than recommended for a level 1 MOSFET.
Instance "m:x6:x2:1": Length shorter than recommended for a level 1 MOSFET.
Instance "m:x6:x1:1": Length shorter than recommended for a level 1 MOSFET.
Instance "m:x6:2": Length shorter than recommended for a level 1 MOSFET.
Instance "m:x5:x2:1": Length shorter than recommended for a level 1 MOSFET.
Instance "m:x5:x1:1": Length shorter than recommended for a level 1 MOSFET.
Instance "m:x5:2": Length shorter than recommended for a level 1 MOSFET.
Instance "m:x4:x2:1": Length shorter than recommended for a level 1 MOSFET.
Instance "m:x4:x1:1": Length shorter than recommended for a level 1 MOSFET.
Instance "m:x4:2": Length shorter than recommended for a level 1 MOSFET.
Instance "m:x3:x2:1": Length shorter than recommended for a level 1 MOSFET.
Instance "m:x3:x1:1": Length shorter than recommended for a level 1 MOSFET.
Instance "m:x3:2": Length shorter than recommended for a level 1 MOSFET.
Instance "m:x2:x2:1": Length shorter than recommended for a level 1 MOSFET.
Instance "m:x2:x1:1": Length shorter than recommended for a level 1 MOSFET.
Instance "m:x2:2": Length shorter than recommended for a level 1 MOSFET.
Instance "m:x9:x2:1": Length shorter than recommended for a level 1 MOSFET.
Instance "m:x9:x1:1": Length shorter than recommended for a level 1 MOSFET.
Instance "m:x9:2": Length shorter than recommended for a level 1 MOSFET.
Instance "m:x8:1": Length shorter than recommended for a level 1 MOSFET.
Instance "m:x7:1": Length shorter than recommended for a level 1 MOSFET.
Instance "m:x6:1": Length shorter than recommended for a level 1 MOSFET.
Instance "m:x5:1": Length shorter than recommended for a level 1 MOSFET.
Instance "m:x4:1": Length shorter than recommended for a level 1 MOSFET.
Instance "m:x3:1": Length shorter than recommended for a level 1 MOSFET.
Instance "m:x2:1": Length shorter than recommended for a level 1 MOSFET.
Instance "m:x9:1": Length shorter than recommended for a level 1 MOSFET.
Direct Newton iteration for .op point succeeded.

Date: Sun Mar 24 20:10:15 2024
Total elapsed time: 0.165 seconds.

tnom = 27
temp = 27
method = modified trap
totiter = 2126
traniter = 2088
tranpoints = 1045
accept = 1045
rejected = 0
matrix size = 107
fillins = 88
solver = Normal
Thread vector: 7.2/4.0[4] 5.0/2.0[4] 1.3/1.3[1] 0.3/1.3[1]  2592/500
Matrix Compiler1: 18.25 KB object code size  3.1/1.6/[1.4]
Matrix Compiler2: 12.44 KB object code size  0.9/1.3/[0.5]

