Circuit: * Z:\home\aniket\LTspice\my_files\sar_logic.asc

WARNING: Node CLK is floating.
WARNING: Node START is floating.
WARNING: Node VIN is floating.

WARNING: Less than two connections to node START.  This node is used by A5.
WARNING: Less than two connections to node OUT7.  This node is used by E1.
WARNING: Less than two connections to node OUT6.  This node is used by E2.
WARNING: Less than two connections to node OUT5.  This node is used by E3.
WARNING: Less than two connections to node OUT4.  This node is used by E4.
WARNING: Less than two connections to node OUT3.  This node is used by E5.
WARNING: Less than two connections to node OUT2.  This node is used by E6.
WARNING: Less than two connections to node OUT1.  This node is used by E7.
WARNING: Less than two connections to node OUT0.  This node is used by E8.
WARNING: Less than two connections to node VIN.  This node is used by E9.
Direct Newton iteration for .op point succeeded.

Date: Sun Apr 07 23:37:31 2024
Total elapsed time: 0.106 seconds.

tnom = 27
temp = 27
method = modified trap
totiter = 2085
traniter = 2082
tranpoints = 1042
accept = 1042
rejected = 0
matrix size = 50
fillins = 0
solver = Normal
Matrix Compiler1: 1.08 KB object code size  0.2/0.2/[0.1]
Matrix Compiler2: off  [0.1]/0.3/0.1

