Circuit: * Z:\home\aniket\LTspice\my_files\t_mux.asc

WARNING: Node N005 is floating.
WARNING: Node N007 is floating.
WARNING: Node N004 is floating.
WARNING: Node N009 is floating.

WARNING: Less than two connections to node N003.  This node is used by V2.
WARNING: Less than two connections to node N008.  This node is used by V3.
WARNING: Less than two connections to node N004.  This node is used by C1.
WARNING: Less than two connections to node N009.  This node is used by C2.
Direct Newton iteration for .op point succeeded.

Date: Sun Mar 17 10:28:16 2024
Total elapsed time: 0.046 seconds.

tnom = 27
temp = 27
method = modified trap
totiter = 2902
traniter = 2877
tranpoints = 1331
accept = 1268
rejected = 63
matrix size = 13
fillins = 0
solver = Normal
Matrix Compiler1: 352 bytes object code size  0.4/0.1/[0.1]
Matrix Compiler2:      70 opcodes  0.2/[0.1]/0.1

